          33
-104.813835    
 O    4.45336962     -0.967525363       1.83930850    
 H    4.08073092      -1.26838911       2.68102717    
 H    4.32899237      -1.05853900E-02   1.82525396    
 O   0.739759922      -2.15426850       2.13111806    
 H   0.209369212      -1.38000667       1.90096390    
 H    1.34880912      -2.27659082       1.39141178    
 O  -0.562163830      -1.99171948       4.68007135    
 H  -0.225441188      -2.26063824       3.81548429    
 H  -0.635273576      -1.03081203       4.63672161    
 O  -0.527635872      0.888278663       4.23409653    
 H  -0.868490338       1.50962758       4.87113190    
 H   0.442550153      0.994874775       4.22656202    
 O    2.66332269      -1.98559535       7.23405629E-02
 H    3.06250429      -2.55196214     -0.581887960    
 H    3.38176727      -1.67621696      0.653936803    
 O    1.61061418      -2.70504975       6.25079155    
 H    1.44463873      -3.47828388       6.78355169    
 H   0.769346476      -2.49670529       5.81134701    
 O    2.84421420      -1.67483366       4.00430632    
 H    2.12256312      -1.86591709       3.38907647    
 H    2.59096742      -2.07101154       4.84916019    
 O    3.54894924       1.76194918       1.71982217    
 H    3.93965054       2.54836512       1.34890270    
 H    2.86665487       1.46357822       1.09251142    
 O    1.64275968      0.697706819       8.57570022E-02
 H   0.786046743      0.625312686      0.524252415    
 H    1.94047093     -0.208020970      -6.94484115E-02
 O    2.13929272       1.04073358       4.07991505    
 H    2.45326257      0.131021202       4.17685795    
 H    2.63330793       1.41115308       3.33911943    
 O  -0.751488388      0.207878798       1.57095075    
 H  -0.738663137      0.525349319       2.48849893    
 H   -1.66480994      0.202986807       1.29404747    