          36
-120.145905    
 O   0.296446651      0.496062785     -0.174135834    
 H  -0.594817042      0.482940048      0.205922931    
 H   0.730550230       1.27782261      0.188142896    
 O  -0.411972165      0.685778141       4.71785879    
 H  -0.643828452       1.00781643       5.58450031    
 H  -0.733379424       1.34441280       4.07597876    
 O   -1.05837345      -1.44756567       2.99190712    
 H  -0.204676449      -1.52516305       2.54007983    
 H  -0.917352617     -0.840453207       3.72836351    
 O   -2.19831014      0.260584682       1.08323812    
 H   -1.88829219     -0.337373883       1.77987456    
 H   -2.67695308     -0.289591104      0.451535881    
 O  -0.549059391      -1.71251702      -1.73042047    
 H  -0.142550766     -0.904133797      -1.39031744    
 H  -0.104521848      -2.44373393      -1.28341019    
 O   -3.09462190      -1.68332314     -0.751358688    
 H   -3.76106572      -1.78603709      -1.42503285    
 H   -2.23127055      -1.70180345      -1.20235229    
 O    1.31020129      -1.51680553       1.49347126    
 H    1.03775012     -0.828126729      0.868603468    
 H    1.21371996      -2.35550213       1.02643859    
 O    2.04096603      0.610052288       3.21311831    
 H    1.32063401      0.593471408       3.85573554    
 H    1.97727668     -0.217904836       2.71831179    
 O    1.38558340       2.55388236       1.41553640    
 H    2.03751135       3.24627852       1.35141206    
 H    1.71517038       1.91500103       2.07304311    
 O   0.470975518      -3.76406121       1.24445502E-02
 H   0.717347383      -4.67578173     -0.116398722    
 H  -0.400555581      -3.76533437      0.447811276    
 O   -1.95921576      -3.45625639       1.21191514    
 H   -1.79168141      -2.87837863       1.96848118    
 H   -2.49292016      -2.94036913      0.594557881    
 O   -1.18272603       2.35099721       2.69986773    
 H  -0.373227239       2.58290768       2.22759748    
 H   -1.69307995       1.79269350       2.09800529    