          42
-142.923737    
 O  -0.490443766      0.782221019      -2.67877483    
 H  -0.990087152      0.521170259      -1.89295816    
 H  -0.792430758      0.200220004      -3.38692188    
 O   -3.49707270      -4.57729387     -0.897970319    
 H   -4.19135237      -4.98411751      -1.41039360    
 H   -3.14245057      -3.85015988      -1.43607736    
 O   -1.12886822      -1.34364426      -4.52052498    
 H  -0.237845257      -1.69341075      -4.33726025    
 H   -1.23883450      -1.34980416      -5.46727991    
 O    1.30234706      -2.26045704      -3.72125816    
 H    1.72778904      -1.53988981      -3.24028134    
 H    1.08268392      -2.92836618      -3.05657911    
 O   0.191373959      -3.74639702      -1.61543667    
 H  -0.651622057      -3.35261655      -1.87706864    
 H   -3.78896594E-02  -4.52498960      -1.08877754    
 O   -2.70710325     -0.949762583       2.08673048    
 H   -3.04146624      -1.85848939       1.97646415    
 H   -3.28419805     -0.516203821       2.70906425    
 O   -1.59606075     -0.514100552     -0.432444781    
 H  -0.704457521     -0.848873794     -0.254741609    
 H   -2.06687522     -0.534645498      0.409500360    
 O    2.05990720      -5.35289990E-03  -2.10314918    
 H    1.19342244      0.380369395      -2.32484031    
 H    2.70400715      0.691818118      -2.19101834    
 O  -0.104201660      -2.15721655       2.49869013    
 H  -0.911222041      -1.62977743       2.46395397    
 H   0.398103148      -1.93406582       1.70327127    
 O  -0.979319096      -4.72760487       2.63014340    
 H  -0.690971851      -5.14464808       3.43744254    
 H  -0.585322022      -3.83721495       2.61804032    
 O   -3.41239476      -3.54265761       1.75270569    
 H   -2.67230487      -4.04042339       2.12457323    
 H   -3.55130959      -3.89840770      0.866597414    
 O   -2.29160047      -2.49525738      -2.23643327    
 H   -2.04297400      -2.14158940      -3.09947300    
 H   -2.15812254      -1.78302550      -1.59289694    
 O   0.958741188      -1.59503984      -4.17413488E-02
 H    1.48345387      -1.03412294     -0.625367820    
 H   0.784458995      -2.41513991     -0.527822256    
 O  -0.949726045      -5.68572712      -5.14287390E-02
 H   -1.84912753      -5.47074509     -0.327444702    
 H  -0.899191976      -5.44850731      0.883581519    