          51
-178.602280    
 O    3.85482430      0.482089996       2.18531728    
 H    4.67018318      0.665049672       1.70682752    
 H    3.34375525     -0.103933983       1.60232365    
 O    3.23222351      -1.79293609      -3.00762415    
 H    2.28137136      -1.64812422      -3.07332706    
 H    3.59138989     -0.975409031      -2.63523102    
 O  -0.189297974       1.47782683      0.445629478    
 H   0.291104525       1.35806966       1.28422272    
 H  -0.861299336       2.13435221      0.608863115    
 O   0.796859026      -1.61642098       3.85810137    
 H   0.196720511      -1.85196328       4.56096888    
 H   0.598052680      -2.20967817       3.11278129    
 O    1.32725585       1.43250513      -1.99916363    
 H    2.26480246       1.28511763      -1.81288707    
 H   0.890227199       1.57491696      -1.15051448    
 O    2.53935885      -1.16658723      0.397859931    
 H    2.75097370      -2.09278989      0.564273119    
 H    1.59212351      -1.13722563      0.218362600    
 O    5.96772909      -2.24327302      0.372725934    
 H    5.73295212      -2.70667958       1.18627846    
 H    5.53154564      -2.72484636     -0.340047091    
 O  -0.200367510      -1.24857998     -0.257647008    
 H  -0.366418749     -0.326168925      -1.98848806E-02
 H   -7.10385218E-02  -1.27320933      -1.21483588    
 O    4.97027302      -3.63553262       2.66185045    
 H    4.51764631      -2.94908237       3.18554258    
 H    5.42040300      -4.20314884       3.28097296    
 O    4.43435907      -3.74236703      -1.56433010    
 H    3.98735976      -3.07613397      -2.11597037    
 H    4.81021595      -4.38292551      -2.16230130    
 O    3.64344311      -1.68013096       3.94084311    
 H    3.83794188     -0.859275818       3.46778560    
 H    2.68186641      -1.71602392       4.01396990    
 O   0.303410143      -3.21628952       1.71027493    
 H    1.11761403      -3.61810708       1.37967908    
 H   -2.36140601E-02  -2.64497495       1.00211513    
 O   0.477050543     -0.947369099      -2.98671579    
 H   0.753523588      -4.89114895E-02  -2.72728992    
 H   -5.51132709E-02 -0.855395138      -3.77268267    
 O    6.07792282      0.477633893      0.391023338    
 H    6.98698997      0.763865411      0.390778363    
 H    6.09125185     -0.496996611      0.382002532    
 O    3.88464308      0.414523780      -1.41453362    
 H    4.70543861      0.615656495     -0.953206360    
 H    3.39741468     -0.177406251     -0.817350030    
 O    2.90428424      -3.93046474      0.783086419    
 H    3.58395195      -3.96482778       1.46981955    
 H    3.36185336      -4.01793051      -6.38658404E-02
 O    1.14992285      0.998274863       2.74429107    
 H   0.965023756      0.150104493       3.16734529    
 H    2.11097670       1.04330873       2.65575576    