          57
-203.295593    
 O    5.79111052      -7.16008186      -2.54794288    
 H    5.28631926      -6.62453508      -1.90936935    
 H    6.68546486      -7.21049356      -2.22184205    
 O    3.79718995      -9.35863304      -6.19079399    
 H    4.24517965      -10.1215219      -6.54561758    
 H    3.96139884      -9.35865593      -5.22992706    
 O   -2.04308128      -5.88428164      -5.68273211    
 H   -2.90298414      -5.72618055      -6.06230831    
 H   -1.55111551      -6.43432331      -6.31905842    
 O    3.80707955      -3.40938234      -2.83061600    
 H    2.83348513      -3.37505937      -2.83921885    
 H    4.11006165      -2.50687933      -2.77925491    
 O    4.54925871      -5.54987478      -4.51730299    
 H    5.07807779      -6.11068106      -3.93528652    
 H    4.35224152      -4.74297953      -4.02289820    
 O  -0.318050623      -9.26503372      -3.24749398    
 H   0.412425339      -9.45477962      -2.64878440    
 H    8.00048709E-02  -9.24627495      -4.12852001    
 O  -0.428066671      -7.24745846      -7.36415815    
 H   0.236382112      -6.61263323      -7.65827465    
 H    5.15668988E-02  -7.88806725      -6.81912041    
 O    1.72808897      -6.73362875      -1.41253877    
 H   0.972014070      -6.19227409      -1.15723085    
 H    1.78112924      -6.67097950      -2.38032198    
 O    2.05425882      -9.44205379      -1.57526159    
 H    2.07834244      -9.87824249     -0.726979673    
 H    1.92654312      -8.49423504      -1.39871681    
 O    1.90997696      -6.48650217      -4.14644623    
 H    2.82359648      -6.23612690      -4.33264923    
 H    1.34215569      -5.78580666      -4.49248886    
 O  -0.501097560      -5.06484127      -1.24639046    
 H   -1.16172493      -4.82804203     -0.602004826    
 H  -0.930665791      -5.66941786      -1.88165998    
 O    1.12039292      -8.72959900      -5.59444141    
 H    1.94853055      -9.10877132      -5.90895367    
 H    1.37621427      -7.96052933      -5.06099892    
 O    4.23856831      -5.57086802      -1.01350129    
 H    3.36195588      -5.98014688      -1.01017940    
 H    4.13695097      -4.74860001      -1.50921416    
 O   0.372769684      -4.46760607      -5.37135839    
 H  -0.516807437      -4.83828211      -5.44344378    
 H   0.808349311      -4.61999989      -6.22065020    
 O    1.10566628      -3.36975884      -2.91008282    
 H   0.798475683      -3.59668803      -3.79869366    
 H   0.548546791      -3.86666775      -2.29901004    
 O   -1.54944158      -6.77566338      -3.01608086    
 H   -1.79710436      -6.52795315      -3.91334701    
 H   -1.17853165      -7.66891527      -3.06215453    
 O    4.16103649      -9.27760220      -3.51174760    
 H    4.75016594      -8.61233807      -3.13571167    
 H    3.44664669      -9.40543652      -2.87612534    
 O    1.61026371      -5.26950741      -7.77790642    
 H    1.81854200      -4.80342770      -8.58318901    
 H    2.41128135      -5.76455688      -7.52947426    
 O    3.83671927      -6.60793972      -7.00556040    
 H    3.84908915      -7.55385828      -6.81558418    
 H    4.22067738      -6.17522526      -6.23077583    