          69
-252.92279111762693     
  O     17.97799097     10.82706037    -14.63412431
  H     17.26770009     11.47871645    -14.60956767
  H     18.07888119      7.37297518    -10.24943955
  O     15.26258293      6.64186613    -11.44468786
  H     18.20675539     10.64703365    -13.71255304
  H     14.62964131     12.21614042    -11.41681662
  O     12.17542541      9.38307039    -13.04216417
  H     15.35169604      6.27532602    -12.33476876
  H     16.09403721     12.52137570    -11.05032328
  O     13.45584998     10.85448961    -11.02190225
  H     14.32170997      6.78516347    -11.27660794
  H     15.00584775      9.83052593    -11.59598165
  O     19.41026741      7.56303574    -11.64017764
  H     12.90677702      9.64452681    -13.62057968
  H     15.55248593      8.38890379    -11.84818282
  O     12.68627630      6.57276503    -16.17954702
  H     11.56219538      8.88004831    -13.59214051
  H     18.52033603      8.61842727    -16.80390083
  O     15.53700923      5.79723324    -14.06684644
  H     13.29410840     10.38059037    -10.19634889
  H     17.93880709      9.37826884    -15.58876937
  O     14.46353578     10.08350350    -14.45274828
  H     12.85615692     10.48495387    -11.68368735
  H     11.82897815      6.11269487    -12.07737579
  O     15.92703881      9.53371632     -8.73321791
  H     20.26701366      7.15223494    -11.56436917
  H     11.07318937      6.26411992    -13.40944633
  O     13.20611960      4.30540434    -14.48953502
  H     18.99793391      7.20280941    -12.44635804
  H     18.19553392      7.29592849    -14.65843002
  O     13.28061256      9.11640212     -8.82431398
  H     12.87129132      5.72489435    -15.75688113
  H     17.37297941      6.22353067    -13.92077504
  O     17.30479988      7.33404802     -9.67729109
  H     13.53653505      7.02539193    -16.25508718
  H     12.49768203      8.11834492    -11.71708702
  O     15.40053259     12.73549757    -11.68532406
  H     15.38734883      6.52236490    -14.69015312
  H     12.77367570      7.93090282    -10.20098144
  O     15.63273701      9.31348559    -12.11674031
  H     14.82459850      5.16212431    -14.21025320
  H      9.90058548      7.74126446    -15.20389767
  O     17.91255065      8.53395952    -16.07406111
  H     14.77324007     10.98589529    -14.59078583
  H     11.38746403      7.31879773    -15.28529761
  O     11.49594986      5.61387382    -12.83447788
  H     14.96044448      9.75308362    -13.68588359
  H     18.11959702     12.19170616     -9.45889412
  O     18.21623481      6.69284412    -13.90546232
  H     16.39731554     10.31488571     -9.04019905
  H     17.83498026     11.19249069    -10.60358042
  O     12.63807476      7.45234018    -11.02832517
  H     16.46211748      8.76799431     -8.99341606
  H     14.85750234      8.67633983    -15.48718769
  O     10.69739499      7.65875214    -14.68708414
  H     12.59591198      4.70258628    -13.84224408
  H     16.10510605      8.04121416    -16.13087226
  O     17.41582266     11.73805674     -9.91623035
  H     12.98052099      3.38135527    -14.55072273
  H     15.63359223     12.68801280    -13.40723002
  O     15.17789361      7.87267277    -15.92263706
  H     14.24515540      9.23260588     -8.73136551
  H     15.60747031     13.45346732    -14.75041196
  O     15.73155668     12.58763431    -14.37157165
  H     12.91227498      9.16613603     -7.94675162
  H     18.77926368      9.28668741    -11.79885485
  O     18.25743599     10.08765121    -11.93297954
  H     16.60684390      6.93336738    -10.21508256
  H     17.33248964      9.80094738    -12.01459588