          72
-264.39438016207009     
  O     13.30533336     12.02444471     -8.70805311
  H     13.99989828     12.60658846     -9.06700104
  H     13.39264188     14.72508437    -12.13894151
  O     11.16032883     10.88702635    -15.37783006
  H     13.28554394     12.16708217     -7.76574528
  H     13.46337119     13.31392880    -12.76734267
  O     13.90434640      9.59538174    -10.08545125
  H     11.12267348     11.79403168    -15.03887779
  H     12.00291357     13.91690463    -15.92316832
  O     18.56724501     13.06798237    -13.18611631
  H     11.41224645     10.94798277    -16.30754532
  H     12.43786363     13.16029353    -17.18751082
  O     11.39369801     12.36015993    -10.75342984
  H     13.75340887     10.38157137     -9.54614238
  H     14.16197178     11.24209405    -13.51977523
  O     11.53485526      9.71786677    -11.62016125
  H     13.07686479      9.44250632    -10.55811938
  H     15.29920899     11.98654672    -12.73358192
  O     13.20074016      9.74712369    -13.83829907
  H     18.36452130     12.72076099    -14.07425622
  H     17.57062906     11.30079155    -15.81217822
  O     14.83524384     15.76892635    -11.56681419
  H     19.49523213     13.28543913    -13.17854588
  H     16.97266489     12.72535392    -15.78952480
  O      9.45463489      9.72001929    -13.54250403
  H     11.92236576     12.27838311     -9.95006817
  H     12.05399286     11.17172155    -18.85586317
  O     15.21079361     13.45458324    -15.65935456
  H     11.87194791     12.98094174    -11.32207713
  H     13.12125157     11.14865175    -17.73368159
  O     14.75893928     11.05611793    -17.20579232
  H     10.75385917      9.55461957    -12.16248317
  H     15.46831993      9.26209001    -10.74324022
  O     10.95125602     13.49203075    -14.40366908
  H     11.47030019     10.63905455    -11.32469077
  H     16.79884973      8.49066619    -10.58160088
  O     12.84830928     14.00148217    -12.46742860
  H     12.69367367      9.65866114    -13.01966754
  H     16.03200123      8.77957195    -12.97208513
  O     12.67342799     13.90223781    -16.61902852
  H     12.58184656     10.08027116    -14.50043849
  H     14.83378649      8.93454527    -13.93084572
  O     14.58412173     12.09767029    -13.37290697
  H     14.88673683     16.71094641    -11.43001329
  H     17.40863913      8.85036883    -16.55866377
  O     17.77635224     12.22187105    -15.60789268
  H     15.44815084     15.55708215    -12.29344265
  H     16.55262794      9.23286701    -15.32775973
  O     12.18336975     11.33411889    -17.92583328
  H     10.00197316     10.06170089    -14.26978188
  H     17.42106435     12.19360291    -12.04376278
  O     16.35429165      9.13216931    -11.12931587
  H      8.81081067      9.13555389    -13.93429796
  H     16.73114395     10.92854244    -11.39999947
  O     15.77062653      8.69448224    -13.89554894
  H     15.00131140     12.95273323    -14.85390772
  H      9.76822012     12.45354328    -11.81076738
  O     16.93671519      9.57387824    -16.15557660
  H     14.36972756     13.76528737    -16.02642999
  H      9.08289893     11.51341778    -12.81783882
  O     16.65946863     11.88149886    -11.53787401
  H     14.94049934     11.88985586    -16.75583127
  H     17.23385710     14.46854990    -13.41927968
  O      9.16304734     12.44021880    -12.56413098
  H     15.46114882     10.45444903    -16.93426990
  H     16.05786458     14.68413887    -14.39284711
  O     16.48011738     15.04138713    -13.60254632
  H     10.18417512     13.25411188    -13.86350777
  H     15.11237796     14.35501624    -10.31077467
  O     15.23936802     13.54347805     -9.80664781
  H     11.62451303     13.78844051    -13.77442225
  H     15.80255490     12.97475768    -10.35026658