          78
-288.99952855625236     
  O     -2.21580848     -1.40218707      3.03337832
  H     -1.41505169     -1.47713974      2.48638632
  H      1.28678798      1.06884453     -5.77199353
  O      2.04464313     -2.13828753     -2.04032067
  H     -2.25161270     -2.18508202      3.57701598
  H      1.79301057      2.33337571     -6.50653717
  O     -1.76859326      3.13054655      0.21410074
  H      1.44723514     -1.37768121     -2.12208728
  H     -1.72434026      0.35678217      3.60569135
  O     -3.59118723      2.51362103      2.26767415
  H      2.74024846     -1.88530508     -1.41625833
  H     -2.15589363      1.80071298      3.30240665
  O      2.65674202     -2.09796536     -4.68164732
  H     -2.41175444      3.06272823      0.92945018
  H      0.68390467      1.52093018     -2.84070398
  O      3.89204172     -1.11169523     -0.29358994
  H     -0.91920101      3.41148954      0.58917862
  H      1.18398394      2.45714136     -3.95826082
  O     -2.47376112     -2.92289436     -2.24089794
  H     -3.90374404      1.63304318      1.99236623
  H      1.81718439      2.47003512     -1.48925996
  O     -4.26660502     -0.02372394      1.55926276
  H     -4.34353955      2.97133513      2.63313444
  H      3.20378755      2.01590253     -0.99783099
  O     -1.70586895     -1.01085109     -4.18628962
  H      2.46188860     -2.21485408     -3.73540367
  H     -0.26959771     -0.75143980     -5.39551074
  O     -3.76720887     -0.64771268     -1.16843334
  H      3.09621397     -2.89265808     -4.97253535
  H      1.22597644     -1.14482482     -5.48858377
  O     -3.52251582      1.01493185     -3.43500776
  H      3.38369533     -0.70977067      0.42346583
  H      1.36368276      3.32001150      0.55664547
  O     -0.07740479     -1.33358789      1.34910724
  H      4.28444313     -0.37303783     -0.77612791
  H      0.90187226      3.17295798      2.01987719
  O      3.82016600      0.49523325     -4.24783277
  H     -2.84233045     -3.79164804     -2.37799868
  H     -1.46789363      1.37464055     -0.05198765
  O      1.77106439      1.90638563     -5.65470971
  H     -1.66771701     -3.04332333     -1.70651010
  H     -2.24058520      0.09354973     -0.49967444
  O     -1.46346952      1.27771998      3.72374125
  H     -3.63995791     -0.58665885      2.03173855
  H      1.47837661      2.20840985      4.31969200
  O      0.85090132      2.45379650     -3.05360343
  H     -4.24777089     -0.30032430      0.63454887
  H      0.21696253      1.69898008      3.58440687
  O      2.33503355      2.30342175     -0.68982874
  H     -1.97811545     -1.75358402     -3.63162200
  H      4.39758557      0.95427468     -2.67206724
  O      0.56570903     -0.52257515     -5.82109171
  H     -2.35287428     -0.30639217     -4.04434750
  H      5.57657184      1.55005661     -1.86897627
  O      0.72371374      3.65072582      1.20125357
  H     -3.82265191     -0.05738124     -1.93216764
  H      0.59849505     -3.02059081     -1.23440267
  O     -1.37679180      0.42989392     -0.22994694
  H     -3.41530532     -1.48800610     -1.49131257
  H     -0.17734471     -2.67797989      0.04392666
  O      1.15244236      1.94109338      3.46452262
  H     -2.93795659      1.73452790     -3.13215821
  H     -0.95032023      2.91284070     -2.79898988
  O      4.69436079      1.19995603     -1.77769827
  H     -4.20207126      1.42065512     -3.96653623
  H     -1.91771236      3.15228322     -1.62083305
  O     -0.23008318     -3.19625822     -0.76925911
  H     -0.58706208     -0.70208860      0.81420198
  H      2.12090614      0.97709990      0.63197400
  O     -1.88673686      2.95911978     -2.56788336
  H      0.78784617     -0.91772924      1.44719227
  H      1.90384090      0.85326975      2.15624199
  O      2.14016930      0.34855388      1.36757750
  H      3.21863798      1.06261836     -4.74461202
  H     -0.38623551     -0.42520138     -3.05590203
  O      0.22702320     -0.11666344     -2.37671466
  H      3.52668538     -0.40749263     -4.41822249
  H     -0.29945873      0.08448060     -1.58965137