          81
-301.24555445125492     
  O      0.01459171      5.83221022      4.31400948
  H      0.17396147      6.73773229      4.56681387
  H     -1.50764546      2.87586705     -0.06733389
  O     -3.47033479      2.59295439      2.96677746
  H      0.80194392      5.32469580      4.58432407
  H      1.45324759      1.64878184      6.89097204
  O      2.30465604      0.70634790      2.61935606
  H     -2.91755249      2.76802974      2.19313377
  H      2.28744033      0.95899598      5.77734782
  O      1.98504706     -2.24841214      0.68431674
  H     -3.13172255      3.15222980      3.67647601
  H      0.89809919      4.63664818     -0.07409863
  O      2.23038846     -0.76905753      5.00016098
  H      2.36114045      0.20691755      3.44081816
  H      0.51309327      3.82748526     -1.32858752
  O     -1.92490555     -1.50542451      2.14464651
  H      1.37501815      0.67668425      2.33908926
  H      1.20358376      4.16779081      1.96206759
  O      2.21858338      4.33695720      4.84114502
  H      2.40310824     -1.46734038      0.30252696
  H      0.16053466      5.14294793      2.55661147
  O     -4.03386969     -0.02416409      3.27837897
  H      1.08548172     -2.26783081      0.33580948
  H     -1.72950449      0.73604639      5.21513757
  O     -0.16352951     -1.14311726      6.47378757
  H      2.37658447     -1.56854117      4.47756235
  H     -3.05594309      0.00406557      4.88925880
  O      0.31786766      0.32315669     -1.36906401
  H      1.39368973     -0.90643905      5.46715258
  H     -1.43381811      3.19869498      4.84322890
  O      2.83435637      3.37400940      2.25325554
  H     -2.71458509     -1.08020298      2.50035800
  H     -1.46900587      4.73078192      4.84296018
  O     -0.90299908      2.67245584     -1.81122428
  H     -1.48349887     -1.98806053      2.86220728
  H     -0.87985952     -0.02998440      2.04865867
  O      3.60015634      3.09639042     -0.48830156
  H      2.59956332      4.09458133      3.98695327
  H     -0.78611033      1.44939190      1.53772570
  O     -1.60908318      2.92509005      0.89088068
  H      2.21318727      3.52655048      5.36629637
  H      0.42690351     -2.93463177      3.80980385
  O      1.95480365      1.81369391      6.08042126
  H     -3.86974247      0.92811449      3.14586752
  H     -0.40754376     -2.38891313      4.98307353
  O      1.22939963      4.33771964     -0.93062788
  H     -4.97890775     -0.14641238      3.24707219
  H     -2.15798436      3.03281775      6.75850972
  O      0.37509265      4.63031489      1.76885187
  H      0.06371686     -0.55429375      7.20237137
  H     -2.45797492      1.53703283      6.91764658
  O     -2.41201694      0.15341747      5.58902312
  H     -1.02730144     -0.82151932      6.17101578
  H      2.75038061      0.43532287      0.89357160
  O     -2.01341106      3.95697128      5.02606976
  H      1.19035312      0.36146728     -0.95605471
  H      3.20070843      1.23159457     -0.33974034
  O     -0.32449010      0.75869457      2.03090164
  H     -0.09968047     -0.48026598     -1.03901674
  H      0.32920566      1.23102953      9.15063075
  O     -0.47823649     -2.75739913      4.09527453
  H      3.24745260      3.37646882      1.38245650
  H     -0.58540938      1.61401674      7.96619218
  O     -2.11282910      2.30584750      7.39199739
  H      2.68899100      2.44176238      2.47443408
  H      2.19481566     -2.71525724      2.35057959
  O      2.84290543      0.37745800     -0.06958540
  H     -1.34665825      2.65748827     -2.65438900
  H      2.77728093     -3.79077695      3.29432158
  O      0.23784483      1.15238276      8.20458956
  H     -0.46955162      1.80561951     -1.70133249
  H     -1.17463669     -2.80482308     -0.70730507
  O      2.25631979     -2.99200366      3.28184551
  H      4.29428206      3.51276134     -0.99231837
  H     -1.22342246     -1.93642187      0.56925847
  O     -0.72178239     -2.10308052     -0.24578916
  H      2.77077962      3.54809126     -0.72744120
  H     -0.34095379      1.45206442      3.66489710
  O     -0.43481860      1.78300055      4.56695832
  H     -0.96137374      3.56971657      1.21449780
  H      0.43151128      1.80203473      4.98777931