          21
-57.8319664    
 O    32.9785347       2.47792697      -6.97352362    
 H    32.1806602       2.85497546      -6.55944252    
 H    32.8864021       2.60883498      -7.91253853    
 O    33.7763748      0.588865280      -5.04061556    
 H    33.4611588       1.13189435      -5.78154945    
 H    34.0771370     -0.234655276      -5.41661501    
 O    29.4817715       1.35507023      -4.58200788    
 H    28.7119846       1.07264745      -4.09540939    
 H    30.2398758       1.20727551      -3.99174929    
 O    31.7936611       1.22622347      -3.07037520    
 H    31.9690533       2.16996717      -2.96573281    
 H    32.4792175      0.899961531      -3.66734314    
 O    34.5903778       3.34339523      -4.74311209    
 H    34.2045059       3.36090350      -5.62828350    
 H    34.6538200       2.40015364      -4.55031681    
 O    30.8828506       3.51472712      -5.62181950    
 H    31.2674732       3.84614348      -4.80147123    
 H    30.2762489       2.80669689      -5.35792875    
 O    32.3974495       4.04858446      -3.22366667    
 H    33.2369919       3.90316296      -3.69132018    
 H    32.5460052       4.76399660      -2.61105204    