          24
-73.3260498    
 O    2.44151878       2.29583812       1.73684192    
 H    2.10576701       2.85209227       1.02185893    
 H    3.24070430       1.87805426       1.39008176    
 O    3.11488080       5.95026445       1.43912661    
 H    4.01919937       5.99848270       1.10242820    
 H    3.16989255       5.45491552       2.26674461    
 O    4.95295858       1.53131342      0.619642556    
 H    4.83077002       2.19899130      -7.92488009E-02
 H    5.32197714      0.758489311      0.201373354    
 O    3.36185527       4.07303572       3.58548498    
 H    2.96912098       3.39495993       3.00656700    
 H    2.97822809       3.95370078       4.44975948    
 O    4.49784088       3.58637452      -1.11024833    
 H    3.56202936       3.79492307     -0.990886271    
 H    4.98238659       4.32899570     -0.726740122    
 O    1.85199356       4.24738169     -0.272082359    
 H    2.22260380       4.93025684      0.315711886    
 H    1.06927526       4.61974859     -0.668410420    
 O    5.77801752       5.59219408      0.480247229    
 H    5.92232943       4.91971636       1.17026222    
 H    6.57534409       6.11198568      0.430569887    
 O    5.89058399       3.61144733       2.34757209    
 H    5.68677855       2.80792117       1.85142899    
 H    5.12289143       3.77246428       2.91166854    